electric-grid/physical/synthetic/synAustinTD/models/syn-austin-D_only-v03/P4U/base/opendss/p4uhs13_1247/Master.dss
Clear

New Circuit.substation_p4uhs13_69 bus1=p4uhs13_69 pu=1.0 basekV=69.0 R1=1e-05 X1=1e-05 R0=1e-05 X0=1e-05

Redirect p4uhs13_1247--p4udt23237/Transformers.dss
Redirect Transformers.dss
Redirect p4uhs13_1247--p4udt1395/Transformers.dss
Redirect Regulators.dss
Redirect p4uhs13_1247--p4udt23237/Loads.dss
Redirect p4uhs13_1247--p4udt1395/Loads.dss
Redirect p4uhs13_1247--p4udt23237/LineCodes.dss
Redirect LineCodes.dss
Redirect p4uhs13_1247--p4udt1395/LineCodes.dss
Redirect p4uhs13_1247--p4udt23237/Lines.dss
Redirect Lines.dss
Redirect p4uhs13_1247--p4udt1395/Lines.dss
Redirect p4uhs13_1247--p4udt23237/Capacitors.dss
Redirect p4uhs13_1247--p4udt1395/Capacitors.dss

Set Voltagebases=[0.2080002494301389, 0.48, 7.199560000000001, 12.47, 69.0]

Calcvoltagebases

Buscoords Buscoords.dss

Solve